25

C 3.1862 0.9644 -0.1564
N 2.1114 -0.0223 -0.0752
C 0.7817 0.1924 0.0016
C 0.1353 -1.0008 0.0345
N 1.0262 -2.0104 -0.0262
C 2.2198 -1.3751 -0.0930
O 3.3192 -1.9863 -0.1704
N -1.2212 -1.0968 0.0885
C -1.9494 0.0755 0.0947
O -3.2120 0.0264 0.0967
N -1.3123 1.3065 0.0914
C 0.0606 1.3788 0.0210
O 0.6555 2.4900 -0.0331
C -2.1111 2.5438 0.0806
C -1.8658 -2.4176 0.0884
H 3.1408 1.6411 0.7224
H 4.1783 0.4658 -0.1655
H 3.0782 1.5585 -1.0879
H 0.8503 -3.0396 -0.0356
H -1.5567 3.3889 0.5417
H -3.0438 2.4229 0.6721
H -2.3734 2.8082 -0.9654
H -1.4048 -3.0667 0.8632
H -2.9495 -2.3554 0.3199
H -1.7435 -2.8923 -0.9081
