18

C -2.5985 -0.3415 0.0596
N -1.3572 0.4252 0.0577
C -1.2259 1.7753 0.1132
N 0.0693 2.1920 0.0943
C 0.7475 1.0318 0.0239
C -0.0952 -0.0276 0.0015
C 0.4111 -1.3219 -0.0699
O -0.3487 -2.3266 -0.0922
N 1.7697 -1.4736 -0.1156
C 2.6076 -0.3841 -0.0918
O 3.8557 -0.5522 -0.1350
N 2.0937 0.8834 -0.0213
H -3.4748 0.3389 0.1147
H -2.6701 -0.9403 -0.8725
H -2.6181 -1.0199 0.9383
H -2.0647 2.4573 0.1673
H 2.1774 -2.4350 -0.1695
H 2.7213 1.7188 -0.0026
