26

C -3.9480 -0.1108 -0.6550
N -3.0509 -1.1476 -0.1390
C -1.6411 -0.9078 -0.4907
C -0.9923 0.2241 0.3359
C 0.5159 0.1446 0.2260
C 1.1677 0.5285 -0.9592
C 2.5624 0.4303 -1.0696
C 3.3148 -0.0632 0.0096
C 2.6671 -0.4564 1.1849
C 1.2776 -0.3585 1.2932
O 4.7028 -0.1719 -0.0686
O 3.2008 0.8188 -2.2464
O -1.4351 1.4725 -0.1304
H -4.9956 -0.4683 -0.5742
H -3.7426 0.0993 -1.7269
H -3.8603 0.8222 -0.0593
H -3.1566 -1.2036 0.9010
H -1.0876 -1.8531 -0.2982
H -1.5389 -0.7009 -1.5795
H -1.2949 0.1026 1.4025
H 0.5917 0.9022 -1.7969
H 3.2431 -0.8419 2.0166
H 0.7969 -0.6764 2.2101
H 5.2179 0.0990 -0.8976
H 2.6810 1.1772 -3.0390
H -1.1960 2.1393 0.5657
