46

C -3.9027 -0.2457 -2.4244
C -3.5584 -0.1804 -0.9591
C -2.2076 -0.1083 -0.5828
C -1.8372 -0.0569 0.7713
C -2.8238 -0.0839 1.7647
C -4.1780 -0.1701 1.3939
C -4.5551 -0.2283 0.0433
S -6.2765 -0.3459 -0.3601
O -6.7330 0.9356 -0.9980
O -7.0895 -0.5876 0.8809
O -6.5316 -1.6271 -1.4164
O -2.4210 -0.0249 3.1091
C -3.3097 -0.0413 4.2215
N -0.4604 0.0236 1.1635
N 0.4875 0.0493 0.3153
C 1.8769 0.1300 0.6815
C 2.2891 0.1939 2.0347
C 3.6515 0.2711 2.3493
C 4.6139 0.2866 1.3427
C 4.2301 0.2254 -0.0018
C 2.8555 0.1461 -0.3411
C 2.4941 0.0817 -1.7017
C 3.4726 0.0985 -2.6983
C 4.8274 0.1842 -2.3600
C 5.2036 0.2414 -1.0131
S 6.0568 0.1910 -3.6202
O 7.2216 1.0380 -3.1904
O 5.4876 0.7614 -4.8890
O 6.5790 -1.3806 -3.8994
O 1.3531 0.1814 3.0689
Na 0.0000 0.0000 0.0000
Na 0.0000 0.0000 0.0000
H -3.0295 0.0142 -3.0600
H -4.7108 0.4741 -2.6672
H -4.2270 -1.2739 -2.6866
H -1.4414 -0.0904 -1.3482
H -4.9434 -0.1925 2.1562
H -3.9931 0.8329 4.1773
H -3.8945 -0.9854 4.2292
H -2.7185 0.0174 5.1582
H 3.9677 0.3200 3.3837
H 5.6608 0.3471 1.6164
H 1.4565 0.0162 -2.0043
H 3.1706 0.0417 -3.7363
H 6.2547 0.2960 -0.7543
H 1.6319 0.2242 4.0421
