24

C -1.0511 -1.0716 0.9378
C -2.5520 -1.0484 0.8208
C -3.1862 -0.1737 0.0267
C -2.4517 0.9561 -0.6489
N -1.0227 0.6538 -0.8187
C -0.4242 0.2530 0.4656
C 1.0764 0.0971 0.3295
C 1.6391 -0.5969 -0.7564
N 2.9872 -0.7508 -0.8480
C 3.8292 -0.2535 0.0957
C 3.3168 0.4309 1.1987
C 1.9365 0.6018 1.3175
H -0.7709 -1.2595 1.9966
H -0.6757 -1.9178 0.3225
H -3.1255 -1.8268 1.3146
H -4.2685 -0.2151 -0.0500
H -2.9049 1.1273 -1.6483
H -2.5825 1.8836 -0.0480
H -0.5565 1.5350 -1.1407
H -0.6398 1.0374 1.2296
H 1.0064 -1.0168 -1.5276
H 4.8968 -0.3937 -0.0081
H 3.9832 0.8228 1.9562
H 1.5404 1.1259 2.1783
