87

C -5.7575 -2.3635 1.2913
C -5.7574 -0.8380 1.3757
N -5.2106 -0.2420 0.1441
C -6.0736 0.6082 -0.6892
C -6.4512 1.8608 0.0524
C -5.4624 2.7991 0.3864
C -5.7983 3.9585 1.0972
C -7.1328 4.1890 1.4574
C -8.1228 3.2590 1.1236
C -7.7838 2.0956 0.4280
S -4.5540 5.1281 1.5184
O -3.2260 4.4367 1.6534
O -4.8939 5.7839 2.8282
O -4.4544 6.2963 0.3175
C -3.8662 -0.5495 -0.2817
C -2.7931 -0.4805 0.6233
C -1.5095 -0.8723 0.2302
C -1.2727 -1.3304 -1.0788
C -2.3411 -1.3716 -1.9890
C -3.6233 -0.9856 -1.5953
C 0.0449 -1.9030 -1.4652
C 1.2238 -1.2418 -1.3006
C 1.2755 0.1813 -0.8844
C 2.4366 0.8265 -0.7331
C 3.7544 0.1514 -0.9697
N 4.9201 0.7700 -0.7992
C 6.2099 0.0741 -1.0098
C 6.5707 0.0156 -2.4932
C 5.0436 2.1662 -0.3210
C 5.3110 2.1994 1.1643
C 6.6149 2.4290 1.6401
C 6.8868 2.3991 3.0156
C 5.8476 2.1516 3.9225
C 4.5493 1.9271 3.4580
C 4.2810 1.9474 2.0857
S 8.5224 2.6773 3.6065
O 8.7877 1.8020 4.7985
O 9.5220 2.3452 2.5330
O 8.6895 4.2888 4.0453
C 3.6844 -1.2778 -1.4138
C 2.5220 -1.9138 -1.5671
C 0.0096 -3.2440 -2.1073
C 0.2187 -3.3265 -3.4960
C 0.1469 -4.5563 -4.1527
C -0.1392 -5.7165 -3.4334
C -0.3453 -5.6525 -2.0539
C -0.2703 -4.4248 -1.3753
S -0.5167 -4.4106 0.3765
O 0.4922 -3.5099 1.0372
O -1.9072 -3.9351 0.6890
O -0.3187 -5.9629 0.9952
Na 0.0000 0.0000 0.0000
Na 0.0000 0.0000 0.0000
H -6.3104 -2.6939 0.3861
H -6.2552 -2.7883 2.1887
H -4.7174 -2.7516 1.2455
H -6.8058 -0.5014 1.5396
H -5.1681 -0.5073 2.2566
H -5.5546 0.9138 -1.6226
H -6.9717 0.0291 -0.9939
H -4.4350 2.6209 0.0960
H -7.4068 5.0868 1.9957
H -9.1512 3.4391 1.4112
H -8.5604 1.3797 0.1819
H -2.9493 -0.1421 1.6394
H -0.7062 -0.8527 0.9576
H -2.1893 -1.7328 -2.9994
H -4.4359 -1.0684 -2.3066
H 0.3633 0.7407 -0.7279
H 2.3598 1.8580 -0.4343
H 6.2087 -0.9335 -0.5443
H 7.0377 0.6055 -0.4913
H 5.7526 -0.4264 -3.0978
H 7.4781 -0.6090 -2.6257
H 6.7872 1.0368 -2.8702
H 5.8839 2.6604 -0.8586
H 4.1850 2.8078 -0.5868
H 7.4192 2.6257 0.9409
H 6.0445 2.1276 4.9859
H 3.7497 1.7310 4.1626
H 3.2707 1.7621 1.7506
H 4.5733 -1.8516 -1.6330
H 2.5551 -2.9515 -1.8763
H 0.4259 -2.4311 -4.0712
H 0.3062 -4.6083 -5.2210
H -0.2004 -6.6679 -3.9458
H -0.5663 -6.5650 -1.5166
