24

C 3.2630 0.6656 -0.2127
N 2.1309 -0.2552 -0.1997
C 2.1694 -1.5987 -0.3771
N 0.9422 -2.1797 -0.3286
C 0.1229 -1.1314 -0.1085
C 0.8268 0.0210 -0.0334
C 0.1764 1.2321 0.1628
O 0.8307 2.3098 0.2120
N -1.1941 1.2216 0.2915
C -1.8956 0.0316 0.1811
O -3.1582 0.0407 0.2334
N -1.2324 -1.1645 0.0071
C -1.9678 -2.4282 -0.1345
C -1.9234 2.4892 0.4633
H 4.2146 0.1090 -0.3487
H 3.1493 1.3869 -1.0490
H 3.3090 1.2169 0.7498
H 3.0817 -2.1566 -0.5454
H -1.3286 -3.2989 0.1249
H -2.8418 -2.4519 0.5510
H -2.3208 -2.5376 -1.1815
H -2.8390 2.3440 1.0756
H -2.2090 2.8918 -0.5312
H -1.3061 3.2426 0.9977
