30

C -2.5145 -2.5426 -0.3155
C -1.1856 -2.7475 -0.6817
C -0.2676 -1.6998 -0.6001
C -0.6659 -0.4292 -0.1407
C -2.0165 -0.2253 0.2408
C -2.9297 -1.2902 0.1384
C -2.5138 1.1087 0.7443
C -2.9677 1.9647 -0.3961
O -4.0299 1.6823 -1.0128
O -2.2122 3.0668 -0.7838
N 0.2875 0.6504 -0.0905
C 1.7039 0.4457 0.0374
C 2.5782 0.9816 -0.9280
C 3.9586 0.7863 -0.8096
C 4.4772 0.0703 0.2704
C 3.6200 -0.4481 1.2425
C 2.2371 -0.2609 1.1370
Cl 1.2081 -0.8677 2.4292
Cl 1.9630 1.8694 -2.3161
H -3.2258 -3.3554 -0.3859
H -0.8672 -3.7187 -1.0380
H 0.7536 -1.8787 -0.9110
H -3.9677 -1.1505 0.4146
H -3.3648 0.9624 1.4447
H -1.7245 1.6304 1.3258
H -2.5044 3.6505 -1.5584
H -0.0397 1.6216 -0.2864
H 4.6312 1.1881 -1.5567
H 5.5459 -0.0768 0.3582
H 4.0333 -0.9875 2.0853
