15

C 2.3022 0.7463 0.2194
C 1.2009 -0.2841 0.0223
O -0.0516 0.3663 0.0475
C -1.0785 -0.5849 -0.1350
C -2.4247 0.1224 -0.1067
H 3.2932 0.2453 0.2013
H 2.1745 1.2567 1.1975
H 2.2657 1.5020 -0.5938
H 1.3666 -0.7874 -0.9577
H 1.2749 -1.0339 0.8428
H -1.0664 -1.3429 0.6814
H -0.9747 -1.0964 -1.1192
H -3.2408 -0.6170 -0.2495
H -2.4751 0.8763 -0.9208
H -2.5663 0.6311 0.8705
