33

C 3.1105 0.5394 1.7019
C 3.4262 0.1211 0.2596
C 3.3878 -1.4062 0.1154
C 2.5169 0.8313 -0.7703
C 1.0499 0.5009 -0.6214
C 0.4940 -0.5885 -1.3095
C -0.8596 -0.9030 -1.1618
C -1.6847 -0.1316 -0.3254
C -1.1249 0.9626 0.3603
C 0.2286 1.2759 0.2116
C -3.1498 -0.4862 -0.1683
C -3.4729 -0.8931 1.2753
C -4.0238 0.6441 -0.6417
O -4.3073 1.6051 0.1243
O -4.4833 0.6509 -1.9551
H 3.1268 1.6462 1.7938
H 3.8750 0.1240 2.3926
H 2.1139 0.1636 2.0164
H 4.4692 0.4443 0.0455
H 4.1588 -1.8677 0.7686
H 3.6037 -1.6991 -0.9341
H 2.3950 -1.8089 0.4078
H 2.6592 1.9310 -0.6821
H 2.8539 0.5645 -1.7963
H 1.1105 -1.1978 -1.9587
H -1.2619 -1.7512 -1.7015
H -1.7350 1.5751 1.0115
H 0.6377 2.1220 0.7497
H -3.3869 -1.3683 -0.8041
H -2.8406 -1.7559 1.5756
H -4.5383 -1.1987 1.3540
H -3.2908 -0.0561 1.9823
H -5.0581 1.4102 -2.3006
