24

C 1.1902 -1.0998 1.0685
C 2.4059 -0.5282 1.4562
C 2.9305 0.5580 0.7482
C 2.2319 1.0735 -0.3519
C 1.0163 0.5034 -0.7419
C 0.4902 -0.5929 -0.0386
C -0.8374 -1.1893 -0.4350
C -1.9898 -0.6362 0.4230
C -2.1842 0.8420 0.1973
O -2.5752 1.2713 -0.9219
O -1.9075 1.7389 1.2243
N -3.2227 -1.3723 0.1344
O 4.1424 1.1178 1.1460
H 0.7928 -1.9353 1.6315
H 2.9394 -0.9277 2.3093
H 2.6282 1.9169 -0.9030
H 0.4840 0.9183 -1.5888
H -1.0394 -1.0003 -1.5127
H -0.7883 -2.2935 -0.3095
H -1.7373 -0.8008 1.4945
H -2.0207 2.7362 1.0876
H -3.9830 -1.0108 0.7559
H -3.5147 -1.1950 -0.8548
H 4.5483 1.9055 0.6544
