24

C -3.2365 -0.7748 0.2452
N -2.1436 0.1852 0.1283
C -2.2489 1.5320 0.0137
N -1.0464 2.1547 -0.0962
C -0.1720 1.1294 -0.0427
C -0.8215 -0.0496 0.0884
C -0.1127 -1.2428 0.1366
O -0.7193 -2.3443 0.2379
N 1.2607 -1.1874 0.0614
C 1.9014 0.0303 -0.1027
O 3.1574 0.0649 -0.2382
N 1.1838 1.2072 -0.1277
C 1.8512 2.5008 -0.3247
C 2.0456 -2.4332 0.0716
H -3.1217 -1.3617 1.1805
H -3.2270 -1.4609 -0.6275
H -4.2142 -0.2483 0.2744
H -3.1925 2.0623 0.0051
H 2.0408 2.6604 -1.4070
H 1.2316 3.3381 0.0616
H 2.8164 2.5314 0.2246
H 3.0375 -2.2772 0.5471
H 1.5381 -3.2271 0.6600
H 2.1917 -2.7893 -0.9699
