20

C -1.8721 -1.0684 -0.6098
C -1.6033 0.0942 0.3537
C -1.6824 1.4381 -0.3813
C -0.2496 -0.0728 1.0618
O 0.8174 -0.0672 0.1162
C 2.1572 -0.1997 0.4900
O 2.4764 -0.3564 1.6999
C 3.2155 -0.2045 -0.5599
H -1.8353 -2.0349 -0.0635
H -1.1187 -1.0882 -1.4263
H -2.8824 -0.9646 -1.0600
H -2.3981 0.0834 1.1321
H -2.6906 1.5690 -0.8290
H -0.9234 1.4918 -1.1910
H -1.5091 2.2740 0.3295
H -0.2417 -1.0314 1.6259
H -0.1064 0.7564 1.7892
H 2.8500 0.3175 -1.4690
H 4.1234 0.3158 -0.1884
H 3.4732 -1.2520 -0.8202
