31

C 3.7101 -0.0152 0.2778
C 2.1943 0.1491 0.4365
C 1.5447 -1.1727 0.9213
C 0.0390 -1.2819 0.5917
C -0.6178 0.1062 0.4516
C 0.0314 0.9062 -0.7250
C 1.5541 0.6319 -0.8777
O -0.6182 0.6808 -1.9497
C -2.1800 0.0539 0.4797
C -2.7978 1.4588 0.4255
C -2.8320 -0.8581 -0.5755
H 4.1732 0.9557 0.0002
H 4.1588 -0.3525 1.2365
H 3.9443 -0.7618 -0.5113
H 2.0270 0.9324 1.2098
H 2.0613 -2.0475 0.4677
H 1.6828 -1.2480 2.0223
H -0.0748 -1.8445 -0.3599
H -0.4648 -1.8675 1.3915
H -0.3465 0.6560 1.3828
H -0.0861 1.9863 -0.4864
H 2.0550 1.5635 -1.2223
H 1.7309 -0.1418 -1.6578
H -0.4898 -0.2748 -2.1857
H -2.4616 -0.3717 1.4695
H -2.3525 2.1068 1.2102
H -2.6317 1.9286 -0.5667
H -3.8923 1.4012 0.6076
H -2.3747 -1.8676 -0.5774
H -3.9085 -0.9884 -0.3331
H -2.7779 -0.4233 -1.5927
