21

C -2.6961 -1.1728 0.4090
N -1.9449 0.0031 -0.0177
C -2.4510 1.1907 -0.4366
N -1.4922 2.0995 -0.7597
C -0.3555 1.4189 -0.5233
C -0.6140 0.1697 -0.0802
C 0.4301 -0.6943 0.2352
O 0.1927 -1.8544 0.6703
N 1.7220 -0.2446 0.0633
C 1.9521 1.0514 -0.3700
O 3.1308 1.4862 -0.4884
N 0.9062 1.8815 -0.6721
C 2.8560 -1.1149 0.4137
H -2.4540 -1.4081 1.4666
H -2.4330 -2.0391 -0.2336
H -3.7881 -0.9870 0.3258
H -3.5108 1.4001 -0.5057
H 1.0747 2.8580 -1.0044
H 2.6060 -2.1859 0.2565
H 3.1306 -0.9575 1.4779
H 3.7383 -0.9007 -0.2266
