20

C 3.7477 -0.6064 -0.1209
C 2.3480 -0.4081 0.3622
O 2.0848 -0.5868 1.5820
N 1.3417 0.0733 -0.5420
C -0.0622 0.1250 -0.2345
C -0.6752 -0.8524 0.5712
C -2.0473 -0.7910 0.8346
C -2.8244 0.2346 0.2879
C -2.2240 1.1988 -0.5322
C -0.8526 1.1389 -0.7978
O -4.1896 0.2838 0.5604
H 4.2928 -1.3040 0.5498
H 3.7372 -1.0339 -1.1454
H 4.2746 0.3701 -0.1375
H 1.6619 0.4864 -1.4474
H -0.1035 -1.6766 0.9758
H -2.5089 -1.5470 1.4572
H -2.8187 1.9928 -0.9657
H -0.4022 1.8892 -1.4354
H -4.7799 1.0133 0.1778
