13

C -1.6270 -0.4139 -0.0628
C -1.2648 0.8738 -0.4707
C 0.0772 1.2674 -0.4373
C 1.0607 0.3741 0.0042
C 0.6950 -0.9172 0.4128
C -0.6474 -1.3090 0.3787
O 2.3937 0.7775 0.0330
H -2.6654 -0.7178 -0.0890
H -2.0232 1.5662 -0.8124
H 0.3529 2.2652 -0.7539
H 1.4480 -1.6152 0.7558
H -0.9282 -2.3056 0.6943
H 3.1286 0.1545 0.3472
