17

C -2.2968 0.7159 0.1998
C -2.4012 -0.6112 -0.2304
C -1.2486 -1.3695 -0.4595
C 0.0144 -0.8011 -0.2586
C 0.1223 0.5399 0.1761
C -1.0391 1.2933 0.4035
C 1.3965 1.0884 0.3708
C 2.5307 0.3084 0.1343
C 2.3804 -1.0130 -0.2946
N 1.1384 -1.5351 -0.4803
H -3.1923 1.2978 0.3755
H -3.3772 -1.0524 -0.3863
H -1.3394 -2.3961 -0.7924
H -0.9743 2.3222 0.7368
H 1.5142 2.1128 0.7033
H 3.5189 0.7243 0.2822
H 3.2533 -1.6246 -0.4802
