29

C -2.7331 0.2844 -0.2203
C -4.1019 0.0386 -0.3670
C -4.6231 -1.2332 -0.0995
C -3.7697 -2.2565 0.3208
C -2.4008 -2.0150 0.4695
C -1.8629 -0.7473 0.1883
C -0.4049 -0.5391 0.3718
C 0.2890 0.4400 -0.2303
C 1.7470 0.6473 -0.0458
C 2.2826 1.9195 -0.3087
C 3.6547 2.1621 -0.1575
C 4.5032 1.1288 0.2475
C 3.9905 -0.1473 0.4944
C 2.6176 -0.3906 0.3451
O 4.8541 -1.1692 0.8833
O 4.1838 3.4264 -0.4079
O -5.9849 -1.4883 -0.2440
H -2.3730 1.2869 -0.4034
H -4.7582 0.8404 -0.6812
H -4.1676 -3.2406 0.5337
H -1.7580 -2.8234 0.7965
H 0.1074 -1.2376 1.0193
H -0.2228 1.1399 -0.8764
H 1.6328 2.7279 -0.6224
H 5.5635 1.3158 0.3635
H 2.2507 -1.3940 0.5101
H 4.5168 -2.1064 1.0696
H 3.5966 4.1976 -0.7031
H -6.6296 -0.7671 -0.5457
