21

C -3.1445 -0.0908 -0.1438
N -1.7550 -0.5266 -0.0521
C -1.2986 -1.8029 -0.0046
N 0.0566 -1.8856 0.0648
C 0.4367 -0.5919 0.0594
C -0.6431 0.2248 -0.0129
C -0.4771 1.6034 -0.0508
O -1.4630 2.3847 -0.1195
N 0.7974 2.0923 -0.0166
C 1.8842 1.2544 0.0539
O 3.0441 1.7511 0.0631
N 1.7120 -0.1122 0.1106
C 2.8616 -1.0248 0.1468
H -3.2978 0.4747 -1.0867
H -3.8273 -0.9670 -0.1378
H -3.3915 0.5583 0.7223
H -1.9435 -2.6720 -0.0228
H 0.9488 3.1264 -0.0518
H 3.6750 -0.6055 0.7767
H 2.5826 -2.0065 0.5857
H 3.2422 -1.1841 -0.8839
