15

C 2.1621 -0.4310 -0.2737
C 0.6971 -0.1498 -0.1169
C 0.1818 1.1175 -0.4346
C -1.1780 1.3899 -0.2529
C -2.0277 0.4048 0.2582
C -1.5180 -0.8529 0.5931
C -0.1588 -1.1292 0.4129
H 2.3336 -1.5076 -0.4871
H 2.6924 -0.1582 0.6625
H 2.5860 0.1574 -1.1151
H 0.8312 1.8926 -0.8226
H -1.5722 2.3660 -0.5047
H -3.0795 0.6175 0.3996
H -2.1753 -1.6125 0.9961
H 0.2253 -2.1045 0.6852
