19

C -2.8001 -1.1531 0.3734
O -2.1696 0.1115 0.1977
C -0.7860 0.2962 0.0483
C -0.3007 1.6012 -0.1172
C 1.0735 1.8263 -0.2693
C 1.9687 0.7550 -0.2574
C 1.4990 -0.5579 -0.0927
C 0.1217 -0.7821 0.0596
C 2.4296 -1.7021 -0.0776
O 3.6708 -1.5333 -0.2119
O -1.1932 2.6718 -0.1293
H -3.8952 -1.0023 0.4645
H -2.4299 -1.6389 1.3008
H -2.6029 -1.8035 -0.5049
H 1.4491 2.8336 -0.3971
H 3.0264 0.9540 -0.3769
H -0.2358 -1.7956 0.1863
H 2.0494 -2.7076 0.0505
H -0.8748 3.6267 -0.2468
