15

C -2.4119 -0.5066 -0.0136
N -1.5076 -1.5135 -0.1628
C -0.3364 -0.8564 -0.1032
C -0.5329 0.4684 0.0718
N -1.8457 0.7182 0.1321
C 0.5488 1.3324 0.1600
O 0.3852 2.5710 0.3231
N 1.8034 0.7957 0.0639
C 1.9844 -0.5561 -0.1142
O 3.1502 -1.0266 -0.1998
N 0.9038 -1.3944 -0.1991
H -3.4817 -0.6688 -0.0116
H -2.3255 1.6366 0.2607
H 2.6373 1.4233 0.1270
H 1.0285 -2.4232 -0.3343
