 xtb: 6.6.0 (conda-forge)
          09062421303D

 24 25  0     0  0            999 V2000
    3.2843    0.6129   -0.2060 C   0  0  0  0  0  0  0  0  0  0  0  0
    2.1549   -0.2744   -0.2158 N   0  0  0  0  0  0  0  0  0  0  0  0
    2.1572   -1.6055   -0.3707 C   0  0  0  0  0  0  0  0  0  0  0  0
    0.9539   -2.1486   -0.3326 N   0  0  0  0  0  0  0  0  0  0  0  0
    0.1196   -1.1053   -0.1412 C   0  0  0  0  0  0  0  0  0  0  0  0
    0.8363    0.0851   -0.0618 C   0  0  0  0  0  0  0  0  0  0  0  0
    0.1988    1.3424    0.1433 C   0  0  0  0  0  0  0  0  0  0  0  0
    0.7418    2.4390    0.2282 O   0  0  0  0  0  0  0  0  0  0  0  0
   -1.1855    1.2082    0.2515 N   0  0  0  0  0  0  0  0  0  0  0  0
   -1.9198    0.0345    0.1645 C   0  0  0  0  0  0  0  0  0  0  0  0
   -3.1385    0.0458    0.2663 O   0  0  0  0  0  0  0  0  0  0  0  0
   -1.2347   -1.1353   -0.0260 N   0  0  0  0  0  0  0  0  0  0  0  0
   -1.9592   -2.3879   -0.1278 C   0  0  0  0  0  0  0  0  0  0  0  0
   -1.9503    2.4290    0.4646 C   0  0  0  0  0  0  0  0  0  0  0  0
    4.1929    0.0320   -0.3370 H   0  0  0  0  0  0  0  0  0  0  0  0
    3.1884    1.3442   -1.0085 H   0  0  0  0  0  0  0  0  0  0  0  0
    3.3193    1.1554    0.7387 H   0  0  0  0  0  0  0  0  0  0  0  0
    3.0508   -2.1786   -0.5129 H   0  0  0  0  0  0  0  0  0  0  0  0
   -1.2719   -3.1892    0.1254 H   0  0  0  0  0  0  0  0  0  0  0  0
   -2.8043   -2.3590    0.5569 H   0  0  0  0  0  0  0  0  0  0  0  0
   -2.3308   -2.5250   -1.1430 H   0  0  0  0  0  0  0  0  0  0  0  0
   -2.8159    2.1974    1.0802 H   0  0  0  0  0  0  0  0  0  0  0  0
   -2.2867    2.8323   -0.4905 H   0  0  0  0  0  0  0  0  0  0  0  0
   -1.3005    3.1506    0.9542 H   0  0  0  0  0  0  0  0  0  0  0  0
  1  2  1  0  0  0  0
  2  3  4  0  0  0  0
  3  4  4  0  0  0  0
  4  5  4  0  0  0  0
  2  6  1  0  0  0  0
  5  6  4  0  0  0  0
  6  7  1  0  0  0  0
  7  8  2  0  0  0  0
  7  9  1  0  0  0  0
  9 10  1  0  0  0  0
 10 11  2  0  0  0  0
  5 12  1  0  0  0  0
 10 12  1  0  0  0  0
 12 13  1  0  0  0  0
  9 14  1  0  0  0  0
  1 15  1  0  0  0  0
  1 16  1  0  0  0  0
  1 17  1  0  0  0  0
  3 18  1  0  0  0  0
 13 19  1  0  0  0  0
 13 20  1  0  0  0  0
 13 21  1  0  0  0  0
 14 22  1  0  0  0  0
 14 23  1  0  0  0  0
 14 24  1  0  0  0  0
M  END
