 xtb: 6.6.0 (conda-forge)
          09232419153D

 21 20  0     0  0            999 V2000
    0.9568   -0.9100   -0.0211 C   0  0  0  0  0  0  0  0  0  0  0  0
    1.8851    0.2608    0.1850 C   0  0  0  0  0  0  0  0  0  0  0  0
    2.4380    0.8737   -0.6866 O   0  0  0  0  0  0  0  0  0  0  0  0
    2.0450    0.5480    1.4827 O   0  0  0  0  0  0  0  0  0  0  0  0
   -0.5362   -0.5512    0.2159 C   0  0  0  0  0  0  0  0  0  0  0  0
   -1.0662    0.4382   -0.8491 C   0  0  0  0  0  0  0  0  0  0  0  0
   -0.4002    1.7927   -0.9221 C   0  0  0  0  0  0  0  0  0  0  0  0
   -0.2863    2.4293   -1.9289 O   0  0  0  0  0  0  0  0  0  0  0  0
    0.0024    2.2639    0.2723 O   0  0  0  0  0  0  0  0  0  0  0  0
   -1.3424   -1.8517    0.0352 C   0  0  0  0  0  0  0  0  0  0  0  0
   -2.0846   -2.3239    0.8413 O   0  0  0  0  0  0  0  0  0  0  0  0
   -1.1204   -2.4026   -1.1659 O   0  0  0  0  0  0  0  0  0  0  0  0
   -0.7845   -0.1270    1.5177 O   0  0  0  0  0  0  0  0  0  0  0  0
    1.2254   -1.6835    0.7011 H   0  0  0  0  0  0  0  0  0  0  0  0
    1.0785   -1.2808   -1.0379 H   0  0  0  0  0  0  0  0  0  0  0  0
    2.6610    1.2880    1.6003 H   0  0  0  0  0  0  0  0  0  0  0  0
   -2.1204    0.6290   -0.6211 H   0  0  0  0  0  0  0  0  0  0  0  0
   -1.0063   -0.0115   -1.8404 H   0  0  0  0  0  0  0  0  0  0  0  0
    0.3920    3.1458    0.1564 H   0  0  0  0  0  0  0  0  0  0  0  0
   -1.6420   -3.2161   -1.2610 H   0  0  0  0  0  0  0  0  0  0  0  0
   -0.2946    0.6888    1.6865 H   0  0  0  0  0  0  0  0  0  0  0  0
  1  2  1  0  0  0  0
  2  3  2  0  0  0  0
  2  4  1  0  0  0  0
  1  5  1  0  0  0  0
  5  6  1  0  0  0  0
  6  7  1  0  0  0  0
  7  8  2  0  0  0  0
  7  9  1  0  0  0  0
  5 10  1  0  0  0  0
 10 11  2  0  0  0  0
 10 12  1  0  0  0  0
  5 13  1  0  0  0  0
  1 14  1  0  0  0  0
  1 15  1  0  0  0  0
  4 16  1  0  0  0  0
  6 17  1  0  0  0  0
  6 18  1  0  0  0  0
  9 19  1  0  0  0  0
 12 20  1  0  0  0  0
 13 21  1  0  0  0  0
M  END
