 xtb: 6.6.0 (conda-forge)
          09302414503D

 20 19  0     0  0            999 V2000
   -1.8092   -1.0675   -0.6106 C   0  0  0  0  0  0  0  0  0  0  0  0
   -1.5640    0.0907    0.3531 C   0  0  0  0  0  0  0  0  0  0  0  0
   -1.6288    1.4295   -0.3775 C   0  0  0  0  0  0  0  0  0  0  0  0
   -0.2162   -0.0723    1.0550 C   0  0  0  0  0  0  0  0  0  0  0  0
    0.8329   -0.0531    0.0867 O   0  0  0  0  0  0  0  0  0  0  0  0
    2.0735   -0.2004    0.5544 C   0  0  0  0  0  0  0  0  0  0  0  0
    2.3360   -0.3350    1.7205 O   0  0  0  0  0  0  0  0  0  0  0  0
    3.0811   -0.1909   -0.5666 C   0  0  0  0  0  0  0  0  0  0  0  0
   -1.7879   -2.0176   -0.0817 H   0  0  0  0  0  0  0  0  0  0  0  0
   -1.0407   -1.0809   -1.3791 H   0  0  0  0  0  0  0  0  0  0  0  0
   -2.7792   -0.9614   -1.0899 H   0  0  0  0  0  0  0  0  0  0  0  0
   -2.3308    0.0732    1.1354 H   0  0  0  0  0  0  0  0  0  0  0  0
   -2.5992    1.5548   -0.8514 H   0  0  0  0  0  0  0  0  0  0  0  0
   -0.8591    1.4727   -1.1437 H   0  0  0  0  0  0  0  0  0  0  0  0
   -1.4746    2.2529    0.3161 H   0  0  0  0  0  0  0  0  0  0  0  0
   -0.1714   -1.0203    1.6032 H   0  0  0  0  0  0  0  0  0  0  0  0
   -0.0466    0.7391    1.7721 H   0  0  0  0  0  0  0  0  0  0  0  0
    2.6695    0.3042   -1.4401 H   0  0  0  0  0  0  0  0  0  0  0  0
    3.9897    0.3029   -0.2344 H   0  0  0  0  0  0  0  0  0  0  0  0
    3.3251   -1.2205   -0.8216 H   0  0  0  0  0  0  0  0  0  0  0  0
  1  2  1  0  0  0  0
  2  3  1  0  0  0  0
  2  4  1  0  0  0  0
  4  5  1  0  0  0  0
  5  6  1  0  0  0  0
  6  7  2  0  0  0  0
  6  8  1  0  0  0  0
  1  9  1  0  0  0  0
  1 10  1  0  0  0  0
  1 11  1  0  0  0  0
  2 12  1  0  0  0  0
  3 13  1  0  0  0  0
  3 14  1  0  0  0  0
  3 15  1  0  0  0  0
  4 16  1  0  0  0  0
  4 17  1  0  0  0  0
  8 18  1  0  0  0  0
  8 19  1  0  0  0  0
  8 20  1  0  0  0  0
M  END
