 xtb: 6.6.0 (conda-forge)
          09152423253D

 12 12  0     0  0            999 V2000
    0.7982   -1.1313    0.0147 C   0  0  0  0  0  0  0  0  0  0  0  0
    1.3789    0.1255   -0.0021 C   0  0  0  0  0  0  0  0  0  0  0  0
    0.5807    1.2568   -0.0169 C   0  0  0  0  0  0  0  0  0  0  0  0
   -0.7982    1.1313   -0.0148 C   0  0  0  0  0  0  0  0  0  0  0  0
   -1.3789   -0.1255    0.0021 C   0  0  0  0  0  0  0  0  0  0  0  0
   -0.5807   -1.2568    0.0169 C   0  0  0  0  0  0  0  0  0  0  0  0
    1.4210   -2.0141    0.0263 H   0  0  0  0  0  0  0  0  0  0  0  0
    2.4549    0.2235   -0.0037 H   0  0  0  0  0  0  0  0  0  0  0  0
    1.0339    2.2376   -0.0300 H   0  0  0  0  0  0  0  0  0  0  0  0
   -1.4210    2.0141   -0.0263 H   0  0  0  0  0  0  0  0  0  0  0  0
   -2.4549   -0.2235    0.0038 H   0  0  0  0  0  0  0  0  0  0  0  0
   -1.0339   -2.2376    0.0300 H   0  0  0  0  0  0  0  0  0  0  0  0
  1  2  4  0  0  0  0
  2  3  4  0  0  0  0
  3  4  4  0  0  0  0
  4  5  4  0  0  0  0
  1  6  4  0  0  0  0
  5  6  4  0  0  0  0
  1  7  1  0  0  0  0
  2  8  1  0  0  0  0
  3  9  1  0  0  0  0
  4 10  1  0  0  0  0
  5 11  1  0  0  0  0
  6 12  1  0  0  0  0
M  END
