 xtb: 6.6.0 (conda-forge)
          09242421073D

 20 20  0     0  0            999 V2000
    3.6715   -0.4518   -0.2381 C   0  0  0  0  0  0  0  0  0  0  0  0
    2.2760   -0.7417    0.2834 C   0  0  0  0  0  0  0  0  0  0  0  0
    2.0456   -1.5839    1.1197 O   0  0  0  0  0  0  0  0  0  0  0  0
    1.3335    0.0487   -0.3067 N   0  0  0  0  0  0  0  0  0  0  0  0
   -0.0501    0.0894   -0.0895 C   0  0  0  0  0  0  0  0  0  0  0  0
   -0.7049   -0.7650    0.7943 C   0  0  0  0  0  0  0  0  0  0  0  0
   -2.0703   -0.6716    0.9657 C   0  0  0  0  0  0  0  0  0  0  0  0
   -2.8103    0.2729    0.2614 C   0  0  0  0  0  0  0  0  0  0  0  0
   -2.1599    1.1241   -0.6228 C   0  0  0  0  0  0  0  0  0  0  0  0
   -0.7923    1.0314   -0.7956 C   0  0  0  0  0  0  0  0  0  0  0  0
   -4.1557    0.3286    0.4658 O   0  0  0  0  0  0  0  0  0  0  0  0
    4.3897   -1.0391    0.3264 H   0  0  0  0  0  0  0  0  0  0  0  0
    3.7398   -0.7249   -1.2893 H   0  0  0  0  0  0  0  0  0  0  0  0
    3.9078    0.6050   -0.1322 H   0  0  0  0  0  0  0  0  0  0  0  0
    1.6648    0.7155   -0.9904 H   0  0  0  0  0  0  0  0  0  0  0  0
   -0.1373   -1.4964    1.3437 H   0  0  0  0  0  0  0  0  0  0  0  0
   -2.5854   -1.3284    1.6477 H   0  0  0  0  0  0  0  0  0  0  0  0
   -2.7242    1.8623   -1.1776 H   0  0  0  0  0  0  0  0  0  0  0  0
   -0.2975    1.7000   -1.4865 H   0  0  0  0  0  0  0  0  0  0  0  0
   -4.5404    1.0251   -0.0792 H   0  0  0  0  0  0  0  0  0  0  0  0
  1  2  1  0  0  0  0
  2  3  2  0  0  0  0
  2  4  1  0  0  0  0
  4  5  1  0  0  0  0
  5  6  4  0  0  0  0
  6  7  4  0  0  0  0
  7  8  4  0  0  0  0
  8  9  4  0  0  0  0
  5 10  4  0  0  0  0
  9 10  4  0  0  0  0
  8 11  1  0  0  0  0
  1 12  1  0  0  0  0
  1 13  1  0  0  0  0
  1 14  1  0  0  0  0
  4 15  1  0  0  0  0
  6 16  1  0  0  0  0
  7 17  1  0  0  0  0
  9 18  1  0  0  0  0
 10 19  1  0  0  0  0
 11 20  1  0  0  0  0
M  END
