 xtb: 6.6.0 (conda-forge)
          09132418013D

 15 15  0     0  0            999 V2000
    2.1549   -0.4302   -0.2744 C   0  0  0  0  0  0  0  0  0  0  0  0
    0.6943   -0.1433   -0.1008 C   0  0  0  0  0  0  0  0  0  0  0  0
    0.1718    1.1027   -0.4263 C   0  0  0  0  0  0  0  0  0  0  0  0
   -1.1728    1.3760   -0.2477 C   0  0  0  0  0  0  0  0  0  0  0  0
   -2.0181    0.4043    0.2608 C   0  0  0  0  0  0  0  0  0  0  0  0
   -1.5089   -0.8409    0.5886 C   0  0  0  0  0  0  0  0  0  0  0  0
   -0.1637   -1.1105    0.4088 C   0  0  0  0  0  0  0  0  0  0  0  0
    2.3207   -1.4860   -0.4724 H   0  0  0  0  0  0  0  0  0  0  0  0
    2.6933   -0.1684    0.6365 H   0  0  0  0  0  0  0  0  0  0  0  0
    2.5695    0.1553   -1.0911 H   0  0  0  0  0  0  0  0  0  0  0  0
    0.8253    1.8655   -0.8249 H   0  0  0  0  0  0  0  0  0  0  0  0
   -1.5628    2.3494   -0.5070 H   0  0  0  0  0  0  0  0  0  0  0  0
   -3.0678    0.6159    0.3999 H   0  0  0  0  0  0  0  0  0  0  0  0
   -2.1622   -1.6045    0.9846 H   0  0  0  0  0  0  0  0  0  0  0  0
    0.2264   -2.0852    0.6656 H   0  0  0  0  0  0  0  0  0  0  0  0
  1  2  1  0  0  0  0
  2  3  4  0  0  0  0
  3  4  4  0  0  0  0
  4  5  4  0  0  0  0
  5  6  4  0  0  0  0
  2  7  4  0  0  0  0
  6  7  4  0  0  0  0
  1  8  1  0  0  0  0
  1  9  1  0  0  0  0
  1 10  1  0  0  0  0
  3 11  1  0  0  0  0
  4 12  1  0  0  0  0
  5 13  1  0  0  0  0
  6 14  1  0  0  0  0
  7 15  1  0  0  0  0
M  END
