 xtb: 6.6.0 (conda-forge)
          09132417463D

 25 26  0     0  0            999 V2000
   -1.6560    1.9424    0.4009 C   0  0  0  0  0  0  0  0  0  0  0  0
   -1.5429    0.5211    0.2258 N   0  0  0  0  0  0  0  0  0  0  0  0
   -0.4740   -0.2295    0.8407 C   0  0  0  0  0  0  0  0  0  0  0  0
   -0.9095   -1.6961    0.6289 C   0  0  0  0  0  0  0  0  0  0  0  0
   -1.8479   -1.6365   -0.5737 C   0  0  0  0  0  0  0  0  0  0  0  0
   -2.3309   -0.1937   -0.6081 C   0  0  0  0  0  0  0  0  0  0  0  0
   -3.2466    0.2535   -1.2592 O   0  0  0  0  0  0  0  0  0  0  0  0
    0.8687    0.0489    0.2066 C   0  0  0  0  0  0  0  0  0  0  0  0
    0.9933    0.3539   -1.1461 C   0  0  0  0  0  0  0  0  0  0  0  0
    2.1504    0.5719   -1.7425 N   0  0  0  0  0  0  0  0  0  0  0  0
    3.2545    0.4964   -1.0209 C   0  0  0  0  0  0  0  0  0  0  0  0
    3.2542    0.2032    0.3348 C   0  0  0  0  0  0  0  0  0  0  0  0
    2.0376   -0.0229    0.9554 C   0  0  0  0  0  0  0  0  0  0  0  0
   -1.8151    2.1860    1.4544 H   0  0  0  0  0  0  0  0  0  0  0  0
   -2.5127    2.2762   -0.1817 H   0  0  0  0  0  0  0  0  0  0  0  0
   -0.7566    2.4524    0.0486 H   0  0  0  0  0  0  0  0  0  0  0  0
   -0.4159    0.0173    1.9093 H   0  0  0  0  0  0  0  0  0  0  0  0
   -0.0527   -2.3473    0.4627 H   0  0  0  0  0  0  0  0  0  0  0  0
   -1.4459   -2.0498    1.5095 H   0  0  0  0  0  0  0  0  0  0  0  0
   -1.3274   -1.8444   -1.5101 H   0  0  0  0  0  0  0  0  0  0  0  0
   -2.6909   -2.3206   -0.4993 H   0  0  0  0  0  0  0  0  0  0  0  0
    0.1204    0.4339   -1.7813 H   0  0  0  0  0  0  0  0  0  0  0  0
    4.1763    0.6815   -1.5558 H   0  0  0  0  0  0  0  0  0  0  0  0
    4.1781    0.1557    0.8899 H   0  0  0  0  0  0  0  0  0  0  0  0
    1.9917   -0.2535    2.0112 H   0  0  0  0  0  0  0  0  0  0  0  0
  1  2  1  0  0  0  0
  2  3  1  0  0  0  0
  3  4  1  0  0  0  0
  4  5  1  0  0  0  0
  2  6  4  0  0  0  0
  5  6  1  0  0  0  0
  6  7  2  0  0  0  0
  3  8  1  0  0  0  0
  8  9  4  0  0  0  0
  9 10  4  0  0  0  0
 10 11  4  0  0  0  0
 11 12  4  0  0  0  0
  8 13  4  0  0  0  0
 12 13  4  0  0  0  0
  1 14  1  0  0  0  0
  1 15  1  0  0  0  0
  1 16  1  0  0  0  0
  3 17  1  0  0  0  0
  4 18  1  0  0  0  0
  4 19  1  0  0  0  0
  5 20  1  0  0  0  0
  5 21  1  0  0  0  0
  9 22  1  0  0  0  0
 11 23  1  0  0  0  0
 12 24  1  0  0  0  0
 13 25  1  0  0  0  0
M  END
