43

C -4.8828 0.5180 0.0121
C -4.3086 0.9218 -1.3607
C -2.8301 1.3892 -1.2497
C -2.0562 0.6609 -0.1176
C -2.6335 -0.7431 0.1331
C -4.1031 -0.6683 0.6563
C -4.8243 -1.9679 0.3496
O -4.9084 -2.3836 -0.8381
O -5.4298 -2.6943 1.3720
O -4.0918 -0.4545 2.0509
O -0.6765 0.5718 -0.4784
C 0.3488 0.3125 0.4379
O 0.0933 0.1897 1.6680
C 1.7290 0.1919 -0.0595
C 2.7683 -0.0322 0.7573
C 4.1725 -0.1484 0.2917
C 5.2077 0.0534 1.2199
C 6.5510 -0.0545 0.8314
C 6.8690 -0.3784 -0.4973
C 5.8438 -0.5958 -1.4218
C 4.5055 -0.4876 -1.0345
O 8.1946 -0.4922 -0.9152
O 7.5682 0.1582 1.7607
O -2.7734 2.7767 -1.0325
O -5.1106 1.8937 -1.9872
H -5.9635 0.2732 -0.0930
H -4.8276 1.4057 0.6819
H -4.3348 0.0190 -2.0097
H -2.3472 1.1561 -2.2285
H -2.1512 1.2553 0.8203
H -1.9969 -1.2925 0.8594
H -2.5776 -1.3121 -0.8217
H -5.9237 -3.5566 1.1752
H -3.6055 -1.2070 2.4804
H 1.8791 0.3183 -1.1224
H 2.5919 -0.0933 1.8253
H 4.9724 0.3039 2.2476
H 6.0855 -0.8572 -2.4443
H 3.7426 -0.6943 -1.7718
H 8.9724 -0.3454 -0.2832
H 7.3656 0.3928 2.7255
H -1.8474 3.0636 -1.2478
H -5.2563 2.6338 -1.3418
