 xtb: 6.6.0 (conda-forge)
          12032416173D

 20 20  0     0  0            999 V2000
    3.6801   -0.2286   -0.2889 C   0  0  0  0  0  0  0  0  0  0  0  0
    2.3695    0.4426    0.0786 C   0  0  0  0  0  0  0  0  0  0  0  0
    2.3043    1.5666    0.5191 O   0  0  0  0  0  0  0  0  0  0  0  0
    1.2971   -0.3719   -0.1403 N   0  0  0  0  0  0  0  0  0  0  0  0
   -0.0653   -0.1158    0.0630 C   0  0  0  0  0  0  0  0  0  0  0  0
   -0.5415    1.0798    0.5954 C   0  0  0  0  0  0  0  0  0  0  0  0
   -1.8966    1.2712    0.7674 C   0  0  0  0  0  0  0  0  0  0  0  0
   -2.8036    0.2773    0.4134 C   0  0  0  0  0  0  0  0  0  0  0  0
   -2.3309   -0.9172   -0.1151 C   0  0  0  0  0  0  0  0  0  0  0  0
   -0.9738   -1.1102   -0.2876 C   0  0  0  0  0  0  0  0  0  0  0  0
   -4.1320    0.5134    0.5997 O   0  0  0  0  0  0  0  0  0  0  0  0
    4.4877    0.4898   -0.1836 H   0  0  0  0  0  0  0  0  0  0  0  0
    3.6508   -0.5896   -1.3149 H   0  0  0  0  0  0  0  0  0  0  0  0
    3.8663   -1.0698    0.3759 H   0  0  0  0  0  0  0  0  0  0  0  0
    1.4942   -1.2896   -0.5155 H   0  0  0  0  0  0  0  0  0  0  0  0
    0.1553    1.8533    0.8692 H   0  0  0  0  0  0  0  0  0  0  0  0
   -2.2742    2.1933    1.1785 H   0  0  0  0  0  0  0  0  0  0  0  0
   -3.0259   -1.6986   -0.3932 H   0  0  0  0  0  0  0  0  0  0  0  0
   -0.6182   -2.0442   -0.7003 H   0  0  0  0  0  0  0  0  0  0  0  0
   -4.6434   -0.2517    0.3111 H   0  0  0  0  0  0  0  0  0  0  0  0
  1  2  1  0  0  0  0
  2  3  2  0  0  0  0
  2  4  1  0  0  0  0
  4  5  1  0  0  0  0
  5  6  4  0  0  0  0
  6  7  4  0  0  0  0
  7  8  4  0  0  0  0
  8  9  4  0  0  0  0
  5 10  4  0  0  0  0
  9 10  4  0  0  0  0
  8 11  1  0  0  0  0
  1 12  1  0  0  0  0
  1 13  1  0  0  0  0
  1 14  1  0  0  0  0
  4 15  1  0  0  0  0
  6 16  1  0  0  0  0
  7 17  1  0  0  0  0
  9 18  1  0  0  0  0
 10 19  1  0  0  0  0
 11 20  1  0  0  0  0
M  END
