 xtb: 6.6.0 (conda-forge)
          10272413093D

 24 25  0     0  0            999 V2000
    3.3205    0.0228    0.1809 C   0  0  0  0  0  0  0  0  0  0  0  0
    2.0634    0.6956    0.0259 N   0  0  0  0  0  0  0  0  0  0  0  0
    1.8249    2.0159   -0.0493 C   0  0  0  0  0  0  0  0  0  0  0  0
    0.5518    2.3152   -0.1983 N   0  0  0  0  0  0  0  0  0  0  0  0
   -0.0780    1.1197   -0.2231 C   0  0  0  0  0  0  0  0  0  0  0  0
    0.8355    0.0843   -0.0846 C   0  0  0  0  0  0  0  0  0  0  0  0
    0.4502   -1.2943   -0.0675 C   0  0  0  0  0  0  0  0  0  0  0  0
    1.1849   -2.2566    0.0503 O   0  0  0  0  0  0  0  0  0  0  0  0
   -0.9341   -1.4258   -0.2078 N   0  0  0  0  0  0  0  0  0  0  0  0
   -1.8754   -0.4131   -0.3491 C   0  0  0  0  0  0  0  0  0  0  0  0
   -3.0551   -0.6631   -0.4602 O   0  0  0  0  0  0  0  0  0  0  0  0
   -1.4100    0.8849   -0.3506 N   0  0  0  0  0  0  0  0  0  0  0  0
   -2.3462    1.9767   -0.5088 C   0  0  0  0  0  0  0  0  0  0  0  0
   -1.4812   -2.7728   -0.2117 C   0  0  0  0  0  0  0  0  0  0  0  0
    3.2884   -0.6260    1.0571 H   0  0  0  0  0  0  0  0  0  0  0  0
    4.1132    0.7599    0.2943 H   0  0  0  0  0  0  0  0  0  0  0  0
    3.5201   -0.6025   -0.6909 H   0  0  0  0  0  0  0  0  0  0  0  0
    2.6004    2.7537    0.0074 H   0  0  0  0  0  0  0  0  0  0  0  0
   -3.2751    1.7175   -0.0034 H   0  0  0  0  0  0  0  0  0  0  0  0
   -1.8996    2.8687   -0.0774 H   0  0  0  0  0  0  0  0  0  0  0  0
   -2.5561    2.1473   -1.5662 H   0  0  0  0  0  0  0  0  0  0  0  0
   -2.1100   -2.9223    0.6660 H   0  0  0  0  0  0  0  0  0  0  0  0
   -2.0886   -2.9184   -1.1039 H   0  0  0  0  0  0  0  0  0  0  0  0
   -0.6445   -3.4673   -0.1980 H   0  0  0  0  0  0  0  0  0  0  0  0
  1  2  1  0  0  0  0
  2  3  4  0  0  0  0
  3  4  4  0  0  0  0
  4  5  4  0  0  0  0
  2  6  1  0  0  0  0
  5  6  4  0  0  0  0
  6  7  1  0  0  0  0
  7  8  2  0  0  0  0
  7  9  1  0  0  0  0
  9 10  1  0  0  0  0
 10 11  2  0  0  0  0
  5 12  1  0  0  0  0
 10 12  1  0  0  0  0
 12 13  1  0  0  0  0
  9 14  1  0  0  0  0
  1 15  1  0  0  0  0
  1 16  1  0  0  0  0
  1 17  1  0  0  0  0
  3 18  1  0  0  0  0
 13 19  1  0  0  0  0
 13 20  1  0  0  0  0
 13 21  1  0  0  0  0
 14 22  1  0  0  0  0
 14 23  1  0  0  0  0
 14 24  1  0  0  0  0
M  END
