 xtb: 6.6.0 (conda-forge)
          09042421363D

 12 12  0     0  0            999 V2000
   -1.3639    0.2350    0.0425 C   0  0  0  0  0  0  0  0  0  0  0  0
   -0.8852   -1.0642    0.0318 C   0  0  0  0  0  0  0  0  0  0  0  0
    0.4786   -1.2992   -0.0107 C   0  0  0  0  0  0  0  0  0  0  0  0
    1.3639   -0.2350   -0.0425 C   0  0  0  0  0  0  0  0  0  0  0  0
    0.8852    1.0642   -0.0318 C   0  0  0  0  0  0  0  0  0  0  0  0
   -0.4786    1.2992    0.0107 C   0  0  0  0  0  0  0  0  0  0  0  0
   -2.4281    0.4184    0.0757 H   0  0  0  0  0  0  0  0  0  0  0  0
   -1.5760   -1.8946    0.0566 H   0  0  0  0  0  0  0  0  0  0  0  0
    0.8521   -2.3131   -0.0191 H   0  0  0  0  0  0  0  0  0  0  0  0
    2.4281   -0.4184   -0.0757 H   0  0  0  0  0  0  0  0  0  0  0  0
    1.5760    1.8946   -0.0566 H   0  0  0  0  0  0  0  0  0  0  0  0
   -0.8521    2.3131    0.0191 H   0  0  0  0  0  0  0  0  0  0  0  0
  1  2  4  0  0  0  0
  2  3  4  0  0  0  0
  3  4  4  0  0  0  0
  4  5  4  0  0  0  0
  1  6  4  0  0  0  0
  5  6  4  0  0  0  0
  1  7  1  0  0  0  0
  2  8  1  0  0  0  0
  3  9  1  0  0  0  0
  4 10  1  0  0  0  0
  5 11  1  0  0  0  0
  6 12  1  0  0  0  0
M  END
