 xtb: 6.6.0 (conda-forge)
          09042415553D

 14 13  0     0  0            999 V2000
    1.5150    0.6344    0.1740 C   0  0  0  0  0  0  0  0  0  0  0  0
    0.7505   -0.5740   -0.3557 C   0  0  0  0  0  0  0  0  0  0  0  0
   -0.7181   -0.2701   -0.6562 C   0  0  0  0  0  0  0  0  0  0  0  0
   -1.5397    0.0093    0.5976 C   0  0  0  0  0  0  0  0  0  0  0  0
    1.1245    0.9518    1.1374 H   0  0  0  0  0  0  0  0  0  0  0  0
    2.5676    0.3900    0.2998 H   0  0  0  0  0  0  0  0  0  0  0  0
    1.4375    1.4677   -0.5214 H   0  0  0  0  0  0  0  0  0  0  0  0
    0.8072   -1.3868    0.3720 H   0  0  0  0  0  0  0  0  0  0  0  0
    1.2305   -0.9192   -1.2747 H   0  0  0  0  0  0  0  0  0  0  0  0
   -0.7766    0.5899   -1.3274 H   0  0  0  0  0  0  0  0  0  0  0  0
   -1.1520   -1.1266   -1.1779 H   0  0  0  0  0  0  0  0  0  0  0  0
   -1.1960    0.9117    1.0966 H   0  0  0  0  0  0  0  0  0  0  0  0
   -2.5881    0.1439    0.3402 H   0  0  0  0  0  0  0  0  0  0  0  0
   -1.4622   -0.8219    1.2957 H   0  0  0  0  0  0  0  0  0  0  0  0
  1  2  1  0  0  0  0
  2  3  1  0  0  0  0
  3  4  1  0  0  0  0
  1  5  1  0  0  0  0
  1  6  1  0  0  0  0
  1  7  1  0  0  0  0
  2  8  1  0  0  0  0
  2  9  1  0  0  0  0
  3 10  1  0  0  0  0
  3 11  1  0  0  0  0
  4 12  1  0  0  0  0
  4 13  1  0  0  0  0
  4 14  1  0  0  0  0
M  END
