 xtb: 6.6.0 (conda-forge)
          09042415463D

  5  4  0     0  0            999 V2000
   -0.0000   -0.0000    0.0000 C   0  0  0  0  0  0  0  0  0  0  0  0
   -0.6056    0.1385    0.8917 H   0  0  0  0  0  0  0  0  0  0  0  0
   -0.3916   -0.8327   -0.5782 H   0  0  0  0  0  0  0  0  0  0  0  0
   -0.0294    0.9044   -0.6017 H   0  0  0  0  0  0  0  0  0  0  0  0
    1.0265   -0.2101    0.2882 H   0  0  0  0  0  0  0  0  0  0  0  0
  1  2  1  0  0  0  0
  1  3  1  0  0  0  0
  1  4  1  0  0  0  0
  1  5  1  0  0  0  0
M  END
