 xtb: 6.6.0 (conda-forge)
          09042423583D

  3  2  0     0  0            999 V2000
    0.0055    0.3788    0.0000 O   0  0  0  0  0  0  0  0  0  0  0  0
   -0.7756   -0.1782    0.0000 H   0  0  0  0  0  0  0  0  0  0  0  0
    0.7700   -0.2006    0.0000 H   0  0  0  0  0  0  0  0  0  0  0  0
  1  2  1  0  0  0  0
  1  3  1  0  0  0  0
M  END
