20

C 3.7871 0.0553 -0.1761
C 2.3917 0.1973 0.3382
O 2.2075 0.5160 1.5438
N 1.2814 0.0637 -0.5627
C -0.0935 -0.0003 -0.1459
C -1.0911 0.5217 -0.9839
C -2.4371 0.4526 -0.6121
C -2.8027 -0.1546 0.5963
C -1.8162 -0.6965 1.4258
C -0.4692 -0.6277 1.0565
O -4.1403 -0.2292 0.9781
H 4.1025 1.0051 -0.6555
H 4.4833 -0.1824 0.6561
H 3.8333 -0.7646 -0.9231
H 1.4830 0.0974 -1.5879
H -0.8230 0.9917 -1.9218
H -3.1943 0.8689 -1.2642
H -2.0946 -1.1798 2.3538
H 0.2709 -1.0870 1.6977
H -4.8785 0.1524 0.3982
