24

C -2.3826 -2.3322 -0.1402
N -1.9360 -0.9442 -0.0812
C -2.7163 0.1621 -0.0076
N -2.0026 1.3166 0.0524
C -0.7265 0.8826 0.0105
C -0.6803 -0.4668 -0.0664
C 0.5398 -1.1295 -0.0935
O 0.5833 -2.3893 -0.1442
N 1.6909 -0.3756 -0.0541
C 1.6174 1.0039 0.0547
O 2.6786 1.6823 0.1579
N 0.3980 1.6472 0.0594
C 0.3087 3.1068 0.1980
C 3.0035 -1.0428 -0.0434
H -3.4921 -2.3824 -0.1620
H -2.0184 -2.8809 0.7536
H -1.9876 -2.8145 -1.0587
H -3.7983 0.1341 0.0070
H -0.6545 3.4922 -0.1993
H 1.1189 3.6051 -0.3761
H 0.3952 3.3845 1.2695
H 2.9720 -2.0078 -0.5930
H 3.3164 -1.2312 1.0051
H 3.7727 -0.4203 -0.5483
