52

C -2.9891 1.4021 1.2088
C -3.2241 1.7858 -0.2487
C -4.6858 2.0207 -0.5270
C -5.5753 1.0574 -0.8375
C -5.2424 -0.4027 -0.9811
C -4.4780 -0.6506 -2.2567
C -3.3789 -1.4214 -2.3507
C -2.7449 -2.1248 -1.1775
C -1.4471 -2.7780 -1.5734
C -0.3000 -2.1044 -1.7716
C -0.1843 -0.6089 -1.6125
C 1.2242 -0.1405 -1.8662
C 2.2436 -0.2915 -1.0003
C 2.1287 -0.9349 0.3601
C 1.4020 -0.0521 1.3443
C 1.9195 1.0533 1.9141
C 3.3264 1.5438 1.6993
C 4.2958 0.8639 2.6754
C 5.7579 1.2474 2.4046
C 6.2655 0.6274 1.1381
O 6.2686 1.2869 0.0653
O 6.6848 -0.7005 1.1365
H -3.5065 0.4553 1.4605
H -1.9038 1.2615 1.3851
H -3.3564 2.2058 1.8778
H -2.8040 1.0135 -0.9207
H -2.6721 2.7285 -0.4548
H -5.0441 3.0434 -0.4691
H -6.6068 1.3525 -0.9938
H -6.1920 -0.9743 -1.0462
H -4.7171 -0.7596 -0.0762
H -4.8686 -0.2112 -3.1706
H -2.9313 -1.5403 -3.3350
H -2.5562 -1.4212 -0.3423
H -3.4452 -2.9061 -0.8141
H -1.4391 -3.8567 -1.6982
H 0.5813 -2.6746 -2.0561
H -0.8496 -0.1189 -2.3541
H -0.5154 -0.2932 -0.6039
H 1.4299 0.3380 -2.8201
H 3.2256 0.0531 -1.3116
H 3.1441 -1.1635 0.7422
H 1.6007 -1.9078 0.2718
H 0.3921 -0.3348 1.6187
H 1.2969 1.6113 2.6064
H 3.6350 1.3891 0.6464
H 3.3451 2.6394 1.8836
H 4.0353 1.1812 3.7093
H 4.1890 -0.2412 2.6313
H 5.8639 2.3542 2.3584
H 6.3839 0.8851 3.2471
H 7.0184 -1.1398 0.2852
