 xtb: 6.6.0 (conda-forge)
          12102416563D

 12 12  0     0  0            999 V2000
    1.1782    0.7542    0.0168 C   0  0  0  0  0  0  0  0  0  0  0  0
   -0.0639    1.3957    0.0722 C   0  0  0  0  0  0  0  0  0  0  0  0
   -1.2421    0.6415    0.0554 C   0  0  0  0  0  0  0  0  0  0  0  0
   -1.1782   -0.7542   -0.0168 C   0  0  0  0  0  0  0  0  0  0  0  0
    0.0639   -1.3957   -0.0722 C   0  0  0  0  0  0  0  0  0  0  0  0
    1.2421   -0.6415   -0.0554 C   0  0  0  0  0  0  0  0  0  0  0  0
    2.0897    1.3377    0.0298 H   0  0  0  0  0  0  0  0  0  0  0  0
   -0.1132    2.4755    0.1280 H   0  0  0  0  0  0  0  0  0  0  0  0
   -2.2030    1.1378    0.0982 H   0  0  0  0  0  0  0  0  0  0  0  0
   -2.0897   -1.3377   -0.0298 H   0  0  0  0  0  0  0  0  0  0  0  0
    0.1132   -2.4755   -0.1280 H   0  0  0  0  0  0  0  0  0  0  0  0
    2.2030   -1.1378   -0.0982 H   0  0  0  0  0  0  0  0  0  0  0  0
  1  2  4  0  0  0  0
  2  3  4  0  0  0  0
  3  4  4  0  0  0  0
  4  5  4  0  0  0  0
  1  6  4  0  0  0  0
  5  6  4  0  0  0  0
  1  7  1  0  0  0  0
  2  8  1  0  0  0  0
  3  9  1  0  0  0  0
  4 10  1  0  0  0  0
  5 11  1  0  0  0  0
  6 12  1  0  0  0  0
M  END
